*NODE
1, 0., 0., 0.
2, 25., 0., 0.
3, 50., 0., 0.
4, 75., 0., 0.
5, 100., 0., 0.
*ELEMENT, TYPE=B31, ELSET=Eall
1, 1, 2
2, 2, 3
3, 3, 4
4, 4, 5
*MATERIAL, NAME=STEEL45
*ELASTIC
210000., 0.3
*BEAM SECTION, ELSET=Eall, MATERIAL=STEEL45, SECTION=RECT
10., 10.
0., 0., -1.
*BOUNDARY
1, 1, 6
*STEP, NAME=STATIC
*STATIC
*CLOAD
5, 2, -1000.
*NODE FILE
U, RF
*EL FILE
SF
*END STEP
