*NODE
1, 0., 0., 0.
2, 0.5, 0., 0.
3, 1.0, 0., 0.
4, 1.5, 0., 0.
5, 2.0, 0., 0.
6, 2.5, 0., 0.
7, 0., 0.5, 0.
8, 0.5, 0.5, 0.
9, 1.0, 0.5, 0.
10, 1.5, 0.5, 0.
11, 2.0, 0.5, 0.
12, 2.5, 0.5, 0.
13, 0., 1.0, 0.
14, 0.5, 1.0, 0.
15, 1.0, 1.0, 0.
16, 1.5, 1.0, 0.
17, 2.0, 1.0, 0.
18, 2.5, 1.0, 0.
*ELEMENT, TYPE=CPE4R, ELSET=EALL
1, 1, 2, 8, 7
2, 2, 3, 9, 8
3, 3, 4, 10, 9
4, 4, 5, 11, 10
5, 5, 6, 12, 11
6, 7, 8, 14, 13
7, 8, 9, 15, 14
8, 9, 10, 16, 15
9, 10, 11, 17, 16
10, 11, 12, 18, 17
*MATERIAL, NAME=STEEL45
*ELASTIC
210000., 0.3
*SOLID SECTION, ELSET=EALL, MATERIAL=STEEL45
1.
*BOUNDARY
1, 1, 2
2, 1, 2
3, 1, 2
4, 1, 2
5, 1, 2
6, 1, 2
7, 1, 1
13, 1, 1
1, 3, 3
2, 3, 3
3, 3, 3
4, 3, 3
5, 3, 3
6, 3, 3
7, 3, 3
8, 3, 3
9, 3, 3
10, 3, 3
11, 3, 3
12, 3, 3
** ... 6 like lines cut
*STEP, NAME=KIENZLE_LOAD
*STATIC
*CLOAD
17, 1, -355.7
17, 2, -106.7
*NODE FILE
U, S
*EL FILE
S
*END STEP
