*NODE
1, 0., 0., 0.
2, 1., 0., 0.
3, 1., 1., 0.
4, 0., 1., 0.
5, 0., 2., 0.
6, 1., 2., 0.
*ELEMENT, TYPE=CPE4R, ELSET=EALL
1, 1, 2, 3, 4
2, 5, 6, 3, 4
*MATERIAL, NAME=STEEL45CUT
*ELASTIC
210000., 0.3
*PLASTIC, HARDENING=JOHNSON COOK
553.1, 600.8, 0.234, 1.0, 1800., 293.
*RATE DEPENDENT, TYPE=JOHNSON COOK
0.0134, 1.
*DAMAGE INITIATION, CRITERION=JOHNSON COOK
0.06, 3.57, -2.14, 0.002, 0.2, 1800., 293., 1.
1.0
*DENSITY
7.85e-9
*MATERIAL, NAME=TOOLMAT
*ELASTIC
600000., 0.22
*DENSITY
1.5e-8
*SOLID SECTION, ELSET=EALL, MATERIAL=STEEL45CUT
1.
*BOUNDARY
1, 1, 2
2, 2, 2
1, S3
2, S1
2, S3
*STEP
*STATIC
*END STEP
