*NODE
1, 0.0, 0.0, 0.
2, 0.05, 0.0, 0.
3, 0.1, 0.0, 0.
4, 0.15000000000000002, 0.0, 0.
5, 0.2, 0.0, 0.
6, 0.25, 0.0, 0.
7, 0.30000000000000004, 0.0, 0.
8, 0.35000000000000003, 0.0, 0.
9, 0.4, 0.0, 0.
10, 0.45, 0.0, 0.
11, 0.5, 0.0, 0.
12, 0.55, 0.0, 0.
13, 0.6000000000000001, 0.0, 0.
14, 0.65, 0.0, 0.
15, 0.7000000000000001, 0.0, 0.
16, 0.75, 0.0, 0.
17, 0.8, 0.0, 0.
18, 0.8500000000000001, 0.0, 0.
19, 0.9, 0.0, 0.
20, 0.9500000000000001, 0.0, 0.
** ... 1034 like lines cut
*ELEMENT, TYPE=CPE4R, ELSET=WORK
1, 1, 2, 53, 52
2, 2, 3, 54, 53
3, 3, 4, 55, 54
4, 4, 5, 56, 55
5, 5, 6, 57, 56
6, 6, 7, 58, 57
7, 7, 8, 59, 58
8, 8, 9, 60, 59
9, 9, 10, 61, 60
10, 10, 11, 62, 61
11, 11, 12, 63, 62
12, 12, 13, 64, 63
13, 13, 14, 65, 64
14, 14, 15, 66, 65
15, 15, 16, 67, 66
16, 16, 17, 68, 67
17, 17, 18, 69, 68
18, 18, 19, 70, 69
19, 19, 20, 71, 70
20, 20, 21, 72, 71
** ... 880 like lines cut
*ELEMENT, TYPE=CPE4R, ELSET=CUTLAYER
901, 970, 971, 983, 982
902, 971, 972, 984, 983
903, 972, 973, 985, 984
904, 973, 974, 986, 985
905, 974, 975, 987, 986
906, 975, 976, 988, 987
907, 976, 977, 989, 988
908, 977, 978, 990, 989
909, 978, 979, 991, 990
910, 979, 980, 992, 991
911, 980, 981, 993, 992
912, 982, 983, 995, 994
913, 983, 984, 996, 995
914, 984, 985, 997, 996
915, 985, 986, 998, 997
916, 986, 987, 999, 998
917, 987, 988, 1000, 999
918, 988, 989, 1001, 1000
919, 989, 990, 1002, 1001
920, 990, 991, 1003, 1002
921, 991, 992, 1004, 1003
922, 992, 993, 1005, 1004
*ELEMENT, TYPE=CPE4R, ELSET=TOOLE
923, 1006, 1013, 1014, 1007
924, 1013, 1020, 1021, 1014
925, 1020, 1027, 1028, 1021
926, 1027, 1034, 1035, 1028
927, 1034, 1041, 1042, 1035
928, 1041, 1048, 1049, 1042
929, 1007, 1014, 1015, 1008
930, 1014, 1021, 1022, 1015
931, 1021, 1028, 1029, 1022
932, 1028, 1035, 1036, 1029
933, 1035, 1042, 1043, 1036
934, 1042, 1049, 1050, 1043
935, 1008, 1015, 1016, 1009
936, 1015, 1022, 1023, 1016
937, 1022, 1029, 1030, 1023
938, 1029, 1036, 1037, 1030
939, 1036, 1043, 1044, 1037
940, 1043, 1050, 1051, 1044
941, 1009, 1016, 1017, 1010
942, 1016, 1023, 1024, 1017
** ... 16 like lines cut
*MATERIAL, NAME=STEEL45
*ELASTIC
210000.0, 0.3
*PLASTIC, HARDENING=JOHNSON COOK
553.1, 600.8, 0.234, 1.0, 1800.0, 293.0
*RATE DEPENDENT, TYPE=JOHNSON COOK
0.0134, 1.
*DENSITY
7.85e-09
*MATERIAL, NAME=TOOLMAT
*ELASTIC
600000.0, 0.22
*DENSITY
1.5e-08
*SOLID SECTION, ELSET=WORK, MATERIAL=STEEL45
1.
*SOLID SECTION, ELSET=CUTLAYER, MATERIAL=STEEL45
1.
*SOLID SECTION, ELSET=TOOLE, MATERIAL=TOOLMAT
1.
*BOUNDARY
1, 1054, 3, 3
*NSET, NSET=WBOT
1, 2, 3, 4, 5, 6, 7, 8, 9, 10, 11, 12, 13, 14, 15, 16
17, 18, 19, 20, 21, 22, 23, 24, 25, 26, 27, 28, 29, 30, 31, 32
33, 34, 35, 36, 37, 38, 39, 40, 41, 42, 43, 44, 45, 46, 47, 48
49, 50, 51

*BOUNDARY
WBOT, 1, 2
*NSET, NSET=WLEFT
52, 103, 154, 205, 256, 307, 358, 409, 460, 511, 562, 613, 664, 715, 766, 817
868, 919

*BOUNDARY
WLEFT, 1, 1
*NSET, NSET=TOOLTOP
1012, 1019, 1026, 1033, 1040, 1047, 1054

*AMPLITUDE, NAME=TOOLVEL, TIME=TOTAL TIME
0.0, 0.0, 0.00018, 1.0
*BOUNDARY, AMPLITUDE=TOOLVEL
TOOLTOP, 1, 1, -0.3
TOOLTOP, 2, 2, 0.
*SURFACE, NAME=TOOLS, TYPE=ELEMENT
925, S4
955, S2
926, S4
956, S2
927, S4
957, S2
928, S4
958, S2
929, S4
959, S2
930, S4
960, S2
925, S1
930, S3
931, S1
936, S3
937, S1
942, S3
943, S1
948, S3
** ... 4 like lines cut
*SURFACE, NAME=WPS_CHIP, TYPE=ELEMENT
901, S3
902, S3
903, S3
904, S3
905, S3
906, S3
907, S3
908, S3
909, S3
910, S3
911, S3
912, S3
913, S3
914, S3
915, S3
916, S3
917, S3
918, S3
919, S3
920, S3
** ... 6 like lines cut
*SURFACE, NAME=WPS_SEAM, TYPE=ELEMENT
901, S1
902, S1
903, S1
904, S1
905, S1
906, S1
907, S1
908, S1
909, S1
910, S1
911, S1
912, S1
913, S1
914, S1
915, S1
916, S1
917, S1
918, S1
919, S1
920, S1
921, S1
922, S1
*SURFACE, NAME=WORK_TOP, TYPE=ELEMENT
851, S3
852, S3
853, S3
854, S3
855, S3
856, S3
857, S3
858, S3
859, S3
860, S3
861, S3
862, S3
863, S3
864, S3
865, S3
866, S3
867, S3
868, S3
869, S3
870, S3
** ... 30 like lines cut
*CONTACT PAIR, INTERACTION=FRIC, TYPE=NODE TO SURFACE
WPS_CHIP, TOOLS
*CONTACT PAIR, INTERACTION=FRIC, TYPE=NODE TO SURFACE
WPS_SEAM, WORK_TOP
*SURFACE INTERACTION, NAME=FRIC
*SURFACE BEHAVIOR, PRESSURE-OVERCLOSURE=LINEAR
2000000.
*FRICTION
0.9
*STEP, NLGEOM, INC=300000
*DYNAMIC, EXPLICIT
1.E-9, 0.00018
*NODE PRINT, NSET=TOOLTOP, FREQUENCY=1000
RF
*NODE FILE, NSET=TOOLTOP
RF
*EL FILE
S
*END STEP
