*NODE
1, 0.0, 0.0, 0.
2, 0.03, 0.0, 0.
3, 0.06, 0.0, 0.
4, 0.09, 0.0, 0.
5, 0.12, 0.0, 0.
6, 0.15, 0.0, 0.
7, 0.18, 0.0, 0.
8, 0.21, 0.0, 0.
9, 0.24, 0.0, 0.
10, 0.27, 0.0, 0.
11, 0.3, 0.0, 0.
12, 0.32999999999999996, 0.0, 0.
13, 0.36, 0.0, 0.
14, 0.39, 0.0, 0.
18, 0.51, 0.0, 0.
19, 0.54, 0.0, 0.
20, 0.57, 0.0, 0.
21, 0.6, 0.0, 0.
22, 0.63, 0.0, 0.
23, 0.6599999999999999, 0.0, 0.
** ... 2675 like lines cut
*ELEMENT, TYPE=CPE4R, ELSET=WORK
1, 1, 2, 86, 85
2, 2, 3, 87, 86
3, 3, 4, 88, 87
4, 4, 5, 89, 88
5, 5, 6, 90, 89
6, 6, 7, 91, 90
7, 7, 8, 92, 91
8, 8, 9, 93, 92
9, 9, 10, 94, 93
10, 10, 11, 95, 94
11, 11, 12, 96, 95
12, 12, 13, 97, 96
13, 13, 14, 98, 97
14, 14, 15, 99, 98
15, 15, 16, 100, 99
16, 16, 17, 101, 100
17, 17, 18, 102, 101
18, 18, 19, 103, 102
19, 19, 20, 104, 103
20, 20, 21, 105, 104
** ... 2370 like lines cut
*ELEMENT, TYPE=CPE4R, ELSET=CUTLAYER
2491, 2605, 2606, 2690, 2689
2492, 2606, 2607, 2691, 2690
2493, 2607, 2608, 2692, 2691
2494, 2608, 2609, 2693, 2692
2495, 2609, 2610, 2694, 2693
2496, 2610, 2611, 2695, 2694
2497, 2611, 2612, 2696, 2695
2498, 2612, 2613, 2697, 2696
2499, 2613, 2614, 2698, 2697
2500, 2614, 2615, 2699, 2698
2501, 2615, 2616, 2700, 2699
2502, 2616, 2617, 2701, 2700
2503, 2617, 2618, 2702, 2701
2504, 2618, 2619, 2703, 2702
2505, 2619, 2620, 2704, 2703
2506, 2620, 2621, 2705, 2704
2507, 2621, 2622, 2706, 2705
2508, 2622, 2623, 2707, 2706
2509, 2623, 2624, 2708, 2707
2510, 2624, 2625, 2709, 2708
** ... 307 like lines cut
*ELEMENT, TYPE=CPE4R, ELSET=TOOLE
2823, 3025, 3026, 3033, 3032
2824, 3032, 3033, 3040, 3039
2825, 3039, 3040, 3047, 3046
2828, 3060, 3061, 3068, 3067
2831, 3040, 3041, 3048, 3047
2834, 3061, 3062, 3069, 3068
2837, 3041, 3042, 3049, 3048
2838, 3048, 3049, 3056, 3055
2839, 3055, 3056, 3063, 3062
2840, 3062, 3063, 3070, 3069
2841, 3028, 3029, 3036, 3035
2842, 3035, 3036, 3043, 3042
2843, 3042, 3043, 3050, 3049
2844, 3049, 3050, 3057, 3056
2847, 3029, 3030, 3037, 3036
2850, 3050, 3051, 3058, 3057
2853, 3030, 3031, 3038, 3037
2856, 3051, 3052, 3059, 3058
2857, 3058, 3059, 3066, 3065
2858, 3065, 3066, 3073, 3072
*MATERIAL, NAME=STEEL45
*ELASTIC
210000.0, 0.3
*PLASTIC, HARDENING=JOHNSON COOK
553.1, 600.8, 0.234, 1.0, 1800.0, 293.0
*RATE DEPENDENT, TYPE=JOHNSON COOK
0.0134, 1.
*DENSITY
7.85e-09
*MATERIAL, NAME=TOOLMAT
*ELASTIC
600000.0, 0.22
*DENSITY
1.5e-08
*SOLID SECTION, ELSET=WORK, MATERIAL=STEEL45
1.
*SOLID SECTION, ELSET=CUTLAYER, MATERIAL=STEEL45
1.
*SOLID SECTION, ELSET=TOOLE, MATERIAL=TOOLMAT
1.
*BOUNDARY
1, 3073, 3, 3
*NSET, NSET=WBOT
1, 2, 3, 4, 5, 6, 7, 8, 9, 10, 11, 12, 13, 14, 15, 16
17, 18, 19, 20, 21, 22, 23, 24, 25, 26, 27, 28, 29, 30, 31, 32
33, 34, 35, 36, 37, 38, 39, 40, 41, 42, 43, 44, 45, 46, 47, 48
49, 50, 51, 52, 53, 54, 55, 56, 57, 58, 59, 60, 61, 62, 63, 64
65, 66, 67, 68, 69, 70, 71, 72, 73, 74, 75, 76, 77, 78, 79, 80
81, 82, 83, 84

*BOUNDARY
WBOT, 1, 2
*NSET, NSET=WLEFT
85, 169, 253, 337, 421, 505, 589, 673, 757, 841, 925, 1009, 1093, 1177, 1261, 1345
1429, 1513, 1597, 1681, 1765, 1849, 1933, 2017, 2101, 2185, 2269, 2353, 2437, 2521

*BOUNDARY
WLEFT, 1, 1
*NSET, NSET=TOOLTOP
3031, 3038, 3045, 3052, 3059, 3066, 3073

*AMPLITUDE, NAME=TOOLVEL, TIME=TOTAL TIME
0.0, 0.0, 0.00018, 1.0
*BOUNDARY, AMPLITUDE=TOOLVEL
TOOLTOP, 1, 1, -0.6
TOOLTOP, 2, 2, 0.
